Circuit: * Yusuf Ahmed Khan_20ELB084


Date: Sun Sep 04 19:46:48 2022
Total elapsed time: 0.036 seconds.

tnom = 27
temp = 27
method = trap
totiter = 0
traniter = 0
tranpoints = 0
accept = 0
rejected = 0
matrix size = 3
fillins = 0
solver = Normal

