Circuit: * Yusuf Ahmed Khan_20ELB084

Direct Newton iteration for .op point succeeded.

Date: Sun Sep 04 19:47:56 2022
Total elapsed time: 0.014 seconds.

tnom = 27
temp = 27
method = modified trap
totiter = 2265
traniter = 2262
tranpoints = 1132
accept = 1118
rejected = 14
matrix size = 3
fillins = 0
solver = Normal
Matrix Compiler1: 50 bytes object code size  0.0/0.0/[0.0]
Matrix Compiler2:      15 opcodes  0.0/[0.0]/0.1

