
**** 08/31/22 14:28:03 ****** PSpice 17.2.0 (March 2016) ****** ID# 0 ********

 * Yusuf Ahmed Khan_20ELB084


 ****     CIRCUIT DESCRIPTION


******************************************************************************



Vin 1 0 AC 5V
R 1 2 10K
C 2 0 10nF

.AC DEC 100 0hz 10Meghz
------------$
ERROR(ORPSIM-16103): Invalid value
.probe
.end
